Version 4
SHEET 1 880 680
WIRE -160 -16 -320 -16
WIRE -16 -16 -80 -16
WIRE 48 -16 -16 -16
WIRE 256 -16 128 -16
WIRE 480 0 432 0
WIRE 544 0 480 0
WIRE 816 0 624 0
WIRE -368 48 -512 48
WIRE -160 48 -368 48
WIRE 352 80 352 0
WIRE -368 96 -368 48
WIRE -16 160 -16 -16
WIRE 32 160 -16 160
WIRE 480 160 480 0
WIRE 512 160 480 160
WIRE -512 176 -512 48
WIRE 224 192 192 192
WIRE 256 192 256 -16
WIRE 256 192 224 192
WIRE 320 192 256 192
WIRE 736 192 672 192
WIRE 816 192 816 0
WIRE 816 192 736 192
WIRE -368 224 -368 176
WIRE -320 224 -320 -16
WIRE -320 224 -368 224
WIRE -160 224 -160 48
WIRE -32 224 -80 224
WIRE 32 224 -32 224
WIRE 320 224 320 192
WIRE 352 224 320 224
WIRE 464 224 432 224
WIRE 512 224 464 224
WIRE 256 256 256 192
WIRE -368 272 -368 224
WIRE 464 272 464 224
WIRE -32 288 -32 224
WIRE -512 400 -512 256
WIRE 256 400 256 336
WIRE 464 400 464 352
WIRE 464 400 256 400
WIRE -368 416 -368 336
WIRE -32 432 -32 368
WIRE 464 432 464 400
FLAG -512 400 0
FLAG -368 416 0
FLAG -32 432 0
FLAG 464 432 0
FLAG 224 192 v1
FLAG 736 192 v2
FLAG 352 80 0
SYMBOL SIMS\\MY_IDEAL_opamp 96 192 R0
WINDOW 0 -1 -65 Invisible 2
SYMATTR InstName X1
SYMBOL SIMS\\MY_IDEAL_opamp 576 192 R0
SYMATTR InstName X2
SYMBOL res 32 -32 M90
WINDOW 0 0 56 VBottom 2
WINDOW 3 32 56 VTop 2
SYMATTR InstName R1
SYMATTR Value 100k
SYMBOL res -176 -32 M90
WINDOW 0 0 56 VBottom 2
WINDOW 3 32 56 VTop 2
SYMATTR InstName R2
SYMATTR Value 10k
SYMBOL res 528 -16 M90
WINDOW 0 0 56 VBottom 2
WINDOW 3 32 56 VTop 2
SYMATTR InstName R3
SYMATTR Value 100k
SYMBOL res 336 -16 M90
WINDOW 0 0 56 VBottom 2
WINDOW 3 32 56 VTop 2
SYMATTR InstName R4
SYMATTR Value 10k
SYMBOL res 336 208 M90
WINDOW 0 0 56 VBottom 2
WINDOW 3 32 56 VTop 2
SYMATTR InstName R5
SYMATTR Value 1k
SYMBOL res -176 208 M90
WINDOW 0 0 56 VBottom 2
WINDOW 3 32 56 VTop 2
SYMATTR InstName R6
SYMATTR Value 1k
SYMBOL res -48 384 M180
WINDOW 0 36 76 Left 2
WINDOW 3 36 40 Left 2
SYMATTR InstName R7
SYMATTR Value 10k
SYMBOL res 448 368 M180
WINDOW 0 36 76 Left 2
WINDOW 3 36 40 Left 2
SYMATTR InstName R8
SYMATTR Value 10k
SYMBOL voltage -512 160 R0
WINDOW 123 0 0 Left 0
WINDOW 39 0 0 Left 0
SYMATTR InstName V1
SYMATTR Value 5
SYMBOL res 272 240 M0
SYMATTR InstName R9
SYMATTR Value 100k
SYMBOL res -352 80 M0
SYMATTR InstName R10
SYMATTR Value 100k
SYMBOL diode -352 336 R180
WINDOW 0 24 64 Left 2
WINDOW 3 24 0 Left 2
SYMATTR InstName D1
TEXT -546 456 Left 2 !.tran 0 1m 0 10n
